@<TRIPOS>MOLECULE
MAL
   45    46     1     0     0
SMALL
bcc


@<TRIPOS>ATOM
      1 O6          -1.4210     2.7740     1.8710 OH         1 MAL      -0.604800
      2 C6          -2.5790     2.0780     1.4060 CT         1 MAL       0.136400
      3 C5          -2.1470     0.8460     0.6070 CT         1 MAL       0.136100
      4 H5          -1.4720     1.1510    -0.1930 H1         1 MAL       0.081700
      5 O5          -1.4750    -0.0680     1.4720 OS         1 MAL      -0.425600
      6 C1          -0.9340    -1.1100     0.6610 CT         1 MAL       0.299900
      7 H1          -0.2990    -1.7510     1.2720 H2         1 MAL       0.124700
      8 O1          -0.1570    -0.5370    -0.3920 OS         1 MAL      -0.456600
      9 C4'          1.0660    -0.0860     0.1950 CT         1 MAL       0.132100
     10 H4'          0.8730     0.2790     1.2040 H1         1 MAL       0.092700
     11 C3'          2.0660    -1.2460     0.2520 CT         1 MAL       0.087100
     12 H3'          2.1790    -1.6800    -0.7410 H1         1 MAL       0.060700
     13 O3'          1.5940    -2.2420     1.1610 OH         1 MAL      -0.603800
     14 C2'          3.4170    -0.7050     0.7330 CT         1 MAL       0.093100
     15 H2'          3.3280    -0.3650     1.7650 H1         1 MAL       0.102700
     16 O2'          4.4020    -1.7370     0.6530 OH         1 MAL      -0.592800
     17 C1'          3.8300     0.4690    -0.1580 CT         1 MAL       0.306900
     18 H1'          4.8020     0.8440     0.1640 H2         1 MAL       0.086700
     19 O1'          3.9160     0.0290    -1.5140 OH         1 MAL      -0.636800
     20 O5'          2.8640     1.5130    -0.0600 OS         1 MAL      -0.450600
     21 C5'          1.6550     1.0430    -0.6540 CT         1 MAL       0.101100
     22 H5'          1.8660     0.6680    -1.6550 H1         1 MAL       0.071700
     23 C6'          0.6500     2.1930    -0.7420 CT         1 MAL       0.136400
     24 O6'          1.1640     3.2090    -1.6070 OH         1 MAL      -0.594800
     25 C2          -2.0690    -1.9410     0.0600 CT         1 MAL       0.095100
     26 H2          -2.6780    -2.3610     0.8610 H1         1 MAL       0.099700
     27 O2          -1.5210    -3.0000    -0.7280 OH         1 MAL      -0.592800
     28 C3          -2.9360    -1.0380    -0.8240 CT         1 MAL       0.074100
     29 H3          -2.3560    -0.7020    -1.6840 H1         1 MAL       0.062700
     30 O3          -4.0820    -1.7630    -1.2740 OH         1 MAL      -0.607800
     31 C4          -3.3820     0.1740     0.0030 CT         1 MAL       0.125100
     32 H4          -4.0480    -0.1550     0.8010 H1         1 MAL       0.058700
     33 O4          -4.0670     1.1020    -0.8400 OH         1 MAL      -0.595800
     34 HO6         -1.7360     3.5410     2.3680 HO         1 MAL       0.404000
     35 H61         -3.1810     1.7650     2.2590 H1         1 MAL       0.048700
     36 H62         -3.1670     2.7370     0.7680 H1         1 MAL       0.048700
     37 HOA          2.2520    -2.9510     1.1650 HO         1 MAL       0.422000
     38 HOB          5.2340    -1.3550     0.9640 HO         1 MAL       0.423000
     39 HOC          4.1780     0.7960    -2.0410 HO         1 MAL       0.431000
     40 H63         -0.2940     1.8210    -1.1390 H1         1 MAL       0.069700
     41 H64          0.4870     2.6100     0.2520 H1         1 MAL       0.069700
     42 HOD          0.5020     3.9130    -1.6340 HO         1 MAL       0.409000
     43 HOE         -0.9790    -3.5380    -0.1350 HO         1 MAL       0.421000
     44 HO3         -3.7530    -2.5210    -1.7770 HO         1 MAL       0.424000
     45 HO4         -4.8320     0.6360    -1.2050 HO         1 MAL       0.426000
@<TRIPOS>BOND
     1     1     2 1   
     2     1    34 1   
     3     2     3 1   
     4     2    35 1   
     5     2    36 1   
     6     3     4 1   
     7     3     5 1   
     8     3    31 1   
     9     5     6 1   
    10     6     7 1   
    11     6     8 1   
    12     6    25 1   
    13     8     9 1   
    14     9    10 1   
    15     9    11 1   
    16     9    21 1   
    17    11    12 1   
    18    11    13 1   
    19    11    14 1   
    20    13    37 1   
    21    14    15 1   
    22    14    16 1   
    23    14    17 1   
    24    16    38 1   
    25    17    18 1   
    26    17    19 1   
    27    17    20 1   
    28    19    39 1   
    29    20    21 1   
    30    21    22 1   
    31    21    23 1   
    32    23    24 1   
    33    23    40 1   
    34    23    41 1   
    35    24    42 1   
    36    25    26 1   
    37    25    27 1   
    38    25    28 1   
    39    27    43 1   
    40    28    29 1   
    41    28    30 1   
    42    28    31 1   
    43    30    44 1   
    44    31    32 1   
    45    31    33 1   
    46    33    45 1   
@<TRIPOS>SUBSTRUCTURE
     1 MAL         1 TEMP              0 ****  ****    0 ROOT
